/*--------------------------------*- C++ -*----------------------------------*\
| =========                 |                                                 |
| \\      /  F ield         | foam-extend: Open Source CFD                    |
|  \\    /   O peration     | Version:     3.1                                |
|   \\  /    A nd           | Web:         http://www.extend-project.de       |
|    \\/     M anipulation  |                                                 |
\*---------------------------------------------------------------------------*/
FoamFile
{
    version     2.0;
    format      ascii;
    class       polyBoundaryMesh;
    location    "345600/polyMesh";
    object      boundary;
}
// * * * * * * * * * * * * * * * * * * * * * * * * * * * * * * * * * * * * * //

5
(
    OUTER
    {
        type            wall;
        nFaces          3830;
        startFace       63765;
    }
    INNER
    {
        type            wall;
        nFaces          3545;
        startFace       67595;
    }
    BOTTOM
    {
        type            wall;
        nFaces          605;
        startFace       71140;
    }
    WALL_OUTER
    {
        type            wall;
        nFaces          2721;
        startFace       71745;
    }
    WALL_INNER
    {
        type            wall;
        nFaces          2712;
        startFace       74466;
    }
)

// ************************************************************************* //
