/*--------------------------------*- C++ -*----------------------------------*\
| =========                 |                                                 |
| \\      /  F ield         | OpenFOAM: The Open Source CFD Toolbox           |
|  \\    /   O peration     | Version:  2.2.2                                 |
|   \\  /    A nd           | Web:      www.OpenFOAM.org                      |
|    \\/     M anipulation  |                                                 |
\*---------------------------------------------------------------------------*/
FoamFile
{
    version     2.0;
    format      ascii;
    class       volScalarField;
    object      E_v;
}
// * * * * * * * * * * * * * * * * * * * * * * * * * * * * * * * * * * * * * //

dimensions          [ 1 -1 -2 0 0 0 0 ];

internalField       uniform 1e5;

boundaryField
{
    OUTER
    {
        type                calculated;
        value               uniform 1e5;
    }

    INNER
    {
        type                calculated;
        value               uniform 1e5;
    }

    BOTTOM
    {
        type                calculated;
        value               uniform 1e5;
    }

    WALL_INNER
    {
        type                calculated;
        value               uniform 1e5;
    }

    WALL_OUTER
    {
        type                calculated;
        value               uniform 1e5;
    }
    
}

// ************************************************************************* //
