/*--------------------------------*- C++ -*----------------------------------*\
| =========                 |                                                 |
| \\      /  F ield         | OpenFOAM: The Open Source CFD Toolbox           |
|  \\    /   O peration     | Version:  2.2.2                                 |
|   \\  /    A nd           | Web:      www.OpenFOAM.org                      |
|    \\/     M anipulation  |                                                 |
\*---------------------------------------------------------------------------*/
FoamFile
{
    version     2.0;
    format      ascii;
    class       dictionary;
    object      blockMeshDict;
}
// * * * * * * * * * * * * * * * * * * * * * * * * * * * * * * * * * * * * * //

convertToMeters 1;

vertices
(
    (0 0 0)
    (0.01 0 0)
    (0.01 0.01 0)
    (0 0.01 0)
    (0 0 0.001)
    (0.01 0 0.001)
    (0.01 0.01 0.001)
    (0 0.01 0.001)
);

blocks
(
    hex (0 1 2 3 4 5 6 7) (20 20 1) simpleGrading (1 1 1)
);

edges
(
);

boundary
(

	FRONT
	{
		type	empty;
		faces
		(
			(0 1 5 4)
		);
	}

	BACK
	{
		type	empty;
		faces
		(
			(3 2 6 7)
		);
	}
	
		
	TOP
	{
		type	empty;
		faces
		(
			(4 5 6 7)
		);
	}
	
		
	BOTTOM
	{
		type	empty;
		faces
		(
			(0 1 2 3)
		);
	}
	
		
	LEFT
	{
		type	wall;
		faces
		(
			(0 3 7 4)
		);
	}
	
	
	RIGHT
	{
		type	patch;
		faces
		(
			(1 2 6 5)
		);
	}	


);

mergePatchPairs
(
);

// ************************************************************************* //
