/*--------------------------------*- C++ -*----------------------------------*\
| =========                 |                                                 |
| \\      /  F ield         | OpenFOAM: The Open Source CFD Toolbox           |
|  \\    /   O peration     | Version:  2.2.2                                 |
|   \\  /    A nd           | Web:      www.OpenFOAM.org                      |
|    \\/     M anipulation  |                                                 |
\*---------------------------------------------------------------------------*/
FoamFile
{
    version     2.0;
    format      ascii;
    class       volScalarField;
    object      Dh_v;
}
// * * * * * * * * * * * * * * * * * * * * * * * * * * * * * * * * * * * * * //

dimensions      [0 2 -1 0 0 0 0];

internalField   uniform 1.2e-10;


boundaryField
{
    INNER
    {
        type                calculated;
        value               uniform 1.2e-10;

    }

    OUTER
    {
        type                calculated;
        value               uniform 1.2e-10;


    }

    BOTTOM
    {
        type                calculated;
        value               uniform 1.2e-10;

    }
   
    WALL_INNER
    {
        type                calculated;
        value               uniform 1.2e-10;

    }

    WALL_OUTER
    {
        type                calculated;
        value               uniform 1.2e-10;

    }

}

// ************************************************************************* //
