/*--------------------------------*- C++ -*----------------------------------*\
| =========                 |                                                 |
| \\      /  F ield         | foam-extend: Open Source CFD                    |
|  \\    /   O peration     | Version:     3.1                                |
|   \\  /    A nd           | Web:         http://www.extend-project.de       |
|    \\/     M anipulation  |                                                 |
\*---------------------------------------------------------------------------*/
FoamFile
{
    version     2.0;
    format      ascii;
    class       dictionary;
    location    "constant";
    object      dynamicMeshDict;
}
// * * * * * * * * * * * * * * * * * * * * * * * * * * * * * * * * * * * * * //

// Select the type of dynamicFvMesh, and load custom library
dynamicFvMesh           dynamicRefineFvMesh; 


dynamicRefineFvMeshCoeffs
{
	refineInterval 20;
	field oGrad;
	lowerRefineLevel 1;
	upperRefineLevel 500;
	unrefineLevel 10;
	nBufferLayers 0;
	maxRefinement 1;
	maxCells 2000000000;
	correctFluxes ( );
	dumpLevel true;
}

}

// ************************************************************************* //
