/*--------------------------------*- C++ -*----------------------------------*\
| =========                 |                                                 |
| \\      /  F ield         | OpenFOAM: The Open Source CFD Toolbox           |
|  \\    /   O peration     | Version:  2.2.2                                 |
|   \\  /    A nd           | Web:      www.OpenFOAM.org                      |
|    \\/     M anipulation  |                                                 |
\*---------------------------------------------------------------------------*/
FoamFile
{
    version     2.0;
    format      ascii;
    class       dictionary;
    location    "constant";
    object      transportProperties;
}
// * * * * * * * * * * * * * * * * * * * * * * * * * * * * * * * * * * * * * //

alpha_a		 alpha_a [ 1 -3 0 0 0 0 0 ] 7e-3;
alpha_h		 alpha_h [ 1 -3 -1 0 0 0 0 ] 2e-9;
alpha_o          alpha_o [ 0 0 0 0 0 0 0 ] 4e2;



beta_a              beta_a [ 0 0 -1 0 0 0 0 ] 1e-4;
beta_h              beta_h [ 0 0 -1 0 0 0 0 ] 2e-4;

gamma_a              gamma_a [ 0 0 -1 0 0 0 0 ] 1e-4;
gamma_h              gamma_h [ -1 3 -1 0 0 0 0 ] 2.5e-1;

Da              Da [ 0 2 -1 0 0 0 0 ] 5e-13;
Dh              Dh [ 0 2 -1 0 0 0 0 ] 1.5e-10;


aT              aT [1  -3 0 0 0 0 0 ] 2e-3; 


m              m [ 0 0 0 0 0 0 0 ] 16;


eta              eta [ 1 -3 -1 0 0 0 0 ] 3.6e-07;
eta_b              eta_b [ 1 -3 -1 0 0 0 0 ] 1e-6;
eta_ocy               eta_ocy [1 -3 -1 0 0 0 0] 1e-7;

etaap               etaap [0 0 -1 0 0 0 0] 5e-8;
etaapb               etaapb [0 0 -1 0 0 0 0] 5e-8;
eta_apocy               eta_apocy [1 -3 -1 0 0 0 0] 1e-6;


ET           ET [ 0 0 0 0 0 0 0 ] 5e-1;
D_T           D_T [ 0 0 0 0 0 0 0 ] 1;

RE0		RE0 [ 0 0 -1 0 0 0 0 ] 3e-6; 

oS           oS [ 1 -3 0 0 0 0 0 ] 1e-3;


Em               Em [1 -1 -2 0 0 0 0] 1e5;
Eb               Eb [1 -1 -2 0 0 0 0] 2e6;

nu_m               nu_m [0 0 0 0 0 0 0] 0.4;
nu_b               nu_b [0 0 0 0 0 0 0] 0.3;

rho_m               rho_m [1 -3 0 0 0 0 0] 1e3;
rho_b               rho_b [1 -3 0 0 0 0 0] 2e3;

b_s               b_s [1 -3 0 0 0 0 0] 1;

tau_1               tau_1 [0 0 0 0 0 0 0] 518400;
tau_2               tau_2 [0 0 0 0 0 0 0] 846000;


// ************************************************************************* //
