/*--------------------------------*- C++ -*----------------------------------*\
| =========                 |                                                 |
| \\      /  F ield         | OpenFOAM: The Open Source CFD Toolbox           |
|  \\    /   O peration     | Version:  2.2.2                                 |
|   \\  /    A nd           | Web:      www.OpenFOAM.org                      |
|    \\/     M anipulation  |                                                 |
\*---------------------------------------------------------------------------*/
FoamFile
{
    version     2.0;
    format      ascii;
    class       volScalarField;
    object      nu_v;
}
// * * * * * * * * * * * * * * * * * * * * * * * * * * * * * * * * * * * * * //

dimensions          [ 0 0 0 0 0 0 0 ];

internalField       uniform 0.4;

boundaryField
{
    OUTER
    {
        type                calculated;
        value               uniform 0.4;
    }

    INNER
    {
        type                calculated;
        value               uniform 0.4;
    }

    BOTTOM
    {
        type                calculated;
        value               uniform 0.4;
    }

    WALL_INNER
    {
        type                calculated;
        value               uniform 0.4;
    }
    
    WALL_OUTER
    {
        type                calculated;
        value               uniform 0.4;
    } 
    
}

// ************************************************************************* //
